Version 4
SHEET 1 4548 1008
WIRE 2480 -400 1536 -400
WIRE -336 -368 -656 -368
WIRE 288 -368 -336 -368
WIRE 1536 -320 1536 -400
WIRE -656 -288 -656 -368
WIRE -1696 -272 -1696 -304
WIRE 2480 -272 2480 -400
WIRE 288 -240 288 -368
WIRE -336 -192 -336 -368
WIRE -336 -192 -448 -192
WIRE -192 -192 -336 -192
WIRE 1536 -176 1536 -240
WIRE -448 -160 -448 -192
WIRE -1696 -144 -1696 -192
WIRE -656 -144 -656 -208
WIRE 2480 -144 2480 -192
WIRE 288 -112 288 -160
WIRE -192 -48 -192 -192
WIRE -448 0 -448 -80
WIRE -320 0 -448 0
WIRE -256 0 -320 0
WIRE -1696 16 -1696 -64
WIRE -1696 16 -1760 16
WIRE -1648 16 -1696 16
WIRE -1632 16 -1648 16
WIRE -1488 16 -1568 16
WIRE -1360 16 -1488 16
WIRE 2480 16 2480 -64
WIRE 2528 16 2480 16
WIRE 2544 16 2528 16
WIRE 2688 16 2608 16
WIRE 2816 16 2688 16
WIRE 288 48 288 -32
WIRE 336 48 288 48
WIRE 352 48 336 48
WIRE 496 48 416 48
WIRE 624 48 496 48
WIRE -192 64 -192 48
WIRE -96 64 -192 64
WIRE -1680 80 -1680 48
WIRE -1680 80 -1696 80
WIRE -1600 80 -1680 80
WIRE -1760 96 -1760 16
WIRE -1600 96 -1600 80
WIRE -192 96 -192 64
WIRE -1696 112 -1696 80
WIRE -1696 112 -1712 112
WIRE -1488 112 -1488 16
WIRE -1360 112 -1360 16
WIRE 2480 112 2480 16
WIRE 2480 112 2368 112
WIRE 2688 112 2688 16
WIRE 2816 112 2816 16
WIRE 2176 128 2096 128
WIRE 2304 128 2256 128
WIRE -320 144 -320 0
WIRE -256 144 -320 144
WIRE 288 144 288 48
WIRE 288 144 176 144
WIRE 496 144 496 48
WIRE 624 144 624 48
WIRE 2096 144 2096 128
WIRE 2432 144 2368 144
WIRE -1680 160 -1712 160
WIRE -96 160 -96 64
WIRE -16 160 -96 160
WIRE 112 160 64 160
WIRE 240 176 176 176
WIRE -448 192 -448 0
WIRE -1600 224 -1600 176
WIRE -624 240 -656 240
WIRE -512 240 -544 240
WIRE -192 240 -192 192
WIRE -1760 272 -1760 176
WIRE -1680 272 -1680 160
WIRE -1680 272 -1760 272
WIRE -1488 272 -1488 176
WIRE -1488 272 -1680 272
WIRE -1360 272 -1360 192
WIRE -1360 272 -1488 272
WIRE -656 272 -656 240
WIRE 2096 272 2096 224
WIRE 2432 272 2432 144
WIRE 2688 272 2688 176
WIRE 2688 272 2432 272
WIRE 2816 272 2816 192
WIRE 2816 272 2688 272
WIRE -1488 304 -1488 272
WIRE 240 304 240 176
WIRE 496 304 496 208
WIRE 496 304 240 304
WIRE 624 304 624 224
WIRE 624 304 496 304
WIRE 2688 304 2688 272
WIRE -448 336 -448 288
WIRE 496 336 496 304
WIRE -656 384 -656 352
FLAG -656 384 0
FLAG -656 -144 0
FLAG 496 336 0
FLAG -1696 -384 0
FLAG -1488 304 0
FLAG -1600 224 0
FLAG -448 336 0
FLAG -192 240 0
FLAG 1536 -176 0
FLAG 2688 304 0
FLAG 2096 272 0
SYMBOL AutoGenerated\\irf540_V2 144 160 R0
SYMATTR InstName U1
SYMBOL cap 480 144 R0
SYMATTR InstName C1
SYMATTR Value 5µ
SYMBOL res 608 128 R0
SYMATTR InstName R1
SYMATTR Value 80
SYMBOL res 272 -128 R0
SYMATTR InstName R2
SYMATTR Value 0.65
SYMBOL ind 272 -256 R0
SYMATTR InstName L1
SYMATTR Value 220µ
SYMBOL voltage -656 256 R0
WINDOW 0 -54 9 Left 2
WINDOW 3 -140 206 Left 2
WINDOW 123 0 0 Left 0
WINDOW 39 0 0 Left 0
SYMATTR InstName V1
SYMATTR Value PULSE(0 5 0 0.0000001n 0.0000001n 15.625u 25u)
SYMBOL voltage -656 -304 R0
WINDOW 0 24 96 Left 2
WINDOW 3 24 16 Left 2
WINDOW 123 0 0 Left 0
WINDOW 39 0 0 Left 0
SYMATTR InstName V2
SYMATTR Value 15
SYMBOL res 80 144 R90
WINDOW 0 0 56 VBottom 2
WINDOW 3 32 56 VTop 2
SYMATTR InstName R3
SYMATTR Value 47
SYMBOL cap -1504 112 R0
SYMATTR InstName C2
SYMATTR Value 10µ
SYMBOL res -1376 96 R0
SYMATTR InstName R4
SYMATTR Value 50
SYMBOL res -1712 -160 R0
SYMATTR InstName R5
SYMATTR Value 0
SYMBOL ind -1712 -288 R0
SYMATTR InstName L2
SYMATTR Value 220µ
SYMBOL voltage -1600 80 R0
WINDOW 3 36 151 Left 2
WINDOW 123 0 0 Left 0
WINDOW 39 0 0 Left 0
SYMATTR Value PULSE(0 15 0 2n 2n 10u 25u)
SYMATTR InstName V3
SYMBOL voltage -1696 -288 R180
WINDOW 0 24 96 Left 2
WINDOW 3 24 16 Left 2
WINDOW 123 0 0 Left 0
WINDOW 39 0 0 Left 0
SYMATTR InstName V4
SYMATTR Value 15
SYMBOL sw -1760 192 R180
SYMATTR InstName S1
SYMATTR Value MYSW
SYMBOL npn -256 -48 R0
SYMATTR InstName Q1
SYMATTR Value 2N2222
SYMBOL npn -512 192 R0
SYMATTR InstName Q2
SYMATTR Value BC547C
SYMBOL res -528 224 R90
WINDOW 0 0 56 VBottom 2
WINDOW 3 32 56 VTop 2
SYMATTR InstName R6
SYMATTR Value 100
SYMBOL res -464 -176 R0
SYMATTR InstName R7
SYMATTR Value 470
SYMBOL pnp -256 192 M180
SYMATTR InstName Q3
SYMATTR Value 2N2907
SYMBOL AutoGenerated\\irf540_V2 2336 128 R0
SYMATTR InstName U2
SYMBOL cap 2672 112 R0
SYMATTR InstName C3
SYMATTR Value 5µ
SYMBOL res 2800 96 R0
SYMATTR InstName R8
SYMATTR Value 110
SYMBOL res 2464 -160 R0
SYMATTR InstName R9
SYMATTR Value 0.65
SYMBOL ind 2464 -288 R0
SYMATTR InstName L3
SYMATTR Value 220µ
SYMBOL voltage 1536 -336 R0
WINDOW 0 24 96 Left 2
WINDOW 3 24 16 Left 2
WINDOW 123 0 0 Left 0
WINDOW 39 0 0 Left 0
SYMATTR InstName V6
SYMATTR Value 15
SYMBOL res 2272 112 R90
WINDOW 0 0 56 VBottom 2
WINDOW 3 32 56 VTop 2
SYMATTR InstName R10
SYMATTR Value 47
SYMBOL voltage 2096 128 R0
WINDOW 3 36 151 Left 2
WINDOW 123 0 0 Left 0
WINDOW 39 0 0 Left 0
SYMATTR Value PULSE(0 15 0 100n 100n 9.375u 25u)
SYMATTR InstName V5
SYMBOL AutoGenerated\\mur160 2560 16 R90
WINDOW 0 -16 -8 VBottom 2
WINDOW 3 16 -8 VTop 2
WINDOW 39 37 -8 VTop 2
SYMATTR InstName U3
SYMBOL AutoGenerated\\mur160 368 48 R90
WINDOW 0 -16 -8 VBottom 2
WINDOW 3 16 -8 VTop 2
WINDOW 39 37 -8 VTop 2
SYMATTR InstName U4
SYMBOL AutoGenerated\\mur160 -1616 16 R90
WINDOW 0 -16 -8 VBottom 2
WINDOW 3 16 -8 VTop 2
WINDOW 39 37 -8 VTop 2
SYMATTR InstName U5
TEXT 1136 -360 Left 2 ;.include sihf540.lib
TEXT 1120 -440 Left 2 !.tran 0 10m 0
TEXT 1136 -320 Left 2 !.include irf540n.spi
TEXT -1544 -40 Left 2 !.model MYSW SW(Ron=0.01 Roff=1Meg Vt=.5 Vh=-.4)
