Version 4
SHEET 1 4548 1332
WIRE -1696 -272 -1696 -304
WIRE -256 -272 -496 -272
WIRE 288 -272 -256 -272
WIRE 288 -240 288 -272
WIRE -496 -192 -496 -272
WIRE -1696 -144 -1696 -192
WIRE 288 -112 288 -160
WIRE -256 -96 -256 -272
WIRE -256 -96 -368 -96
WIRE -112 -96 -256 -96
WIRE -496 -48 -496 -112
WIRE -368 -32 -368 -96
WIRE -1696 16 -1696 -64
WIRE -1696 16 -1760 16
WIRE -1648 16 -1696 16
WIRE -1632 16 -1648 16
WIRE -1488 16 -1568 16
WIRE -1360 16 -1488 16
WIRE -112 48 -112 -96
WIRE 288 48 288 -32
WIRE 352 48 288 48
WIRE 432 48 416 48
WIRE 496 48 432 48
WIRE 624 48 496 48
WIRE -1680 80 -1680 48
WIRE -1680 80 -1696 80
WIRE -1600 80 -1680 80
WIRE -1760 96 -1760 16
WIRE -1600 96 -1600 80
WIRE -368 96 -368 48
WIRE -240 96 -368 96
WIRE -176 96 -240 96
WIRE -1696 112 -1696 80
WIRE -1696 112 -1712 112
WIRE -1488 112 -1488 16
WIRE -1360 112 -1360 16
WIRE 288 144 288 48
WIRE 288 144 176 144
WIRE 496 144 496 48
WIRE 624 144 624 48
WIRE -1680 160 -1712 160
WIRE -112 160 -112 144
WIRE -16 160 -112 160
WIRE 112 160 64 160
WIRE 240 176 176 176
WIRE -112 192 -112 160
WIRE -1600 224 -1600 176
WIRE -240 240 -240 96
WIRE -176 240 -240 240
WIRE -1760 272 -1760 176
WIRE -1680 272 -1680 160
WIRE -1680 272 -1760 272
WIRE -1488 272 -1488 176
WIRE -1488 272 -1680 272
WIRE -1360 272 -1360 192
WIRE -1360 272 -1488 272
WIRE -368 288 -368 96
WIRE -1488 304 -1488 272
WIRE 240 304 240 176
WIRE 496 304 496 208
WIRE 496 304 240 304
WIRE 624 304 624 224
WIRE 624 304 496 304
WIRE -544 336 -576 336
WIRE -432 336 -464 336
WIRE 496 336 496 304
WIRE -576 368 -576 336
WIRE -576 480 -576 448
WIRE -368 480 -368 384
WIRE -112 480 -112 288
WIRE -320 704 -416 704
WIRE -320 736 -320 704
WIRE -416 784 -416 704
WIRE -320 864 -320 816
WIRE -416 928 -416 864
WIRE -320 1024 -320 944
WIRE -272 1024 -320 1024
WIRE -256 1024 -272 1024
WIRE -112 1024 -192 1024
WIRE 16 1024 -112 1024
WIRE -320 1120 -320 1024
WIRE -320 1120 -432 1120
WIRE -112 1120 -112 1024
WIRE 16 1120 16 1024
WIRE -624 1136 -704 1136
WIRE -496 1136 -544 1136
WIRE -704 1152 -704 1136
WIRE -368 1152 -432 1152
WIRE -704 1280 -704 1232
WIRE -368 1280 -368 1152
WIRE -112 1280 -112 1184
WIRE -112 1280 -368 1280
WIRE 16 1280 16 1200
WIRE 16 1280 -112 1280
WIRE -112 1312 -112 1280
FLAG -576 480 0
FLAG -496 -48 0
FLAG 496 336 0
FLAG -1696 -384 0
FLAG -1488 304 0
FLAG -1600 224 0
FLAG -368 480 0
FLAG -112 480 0
FLAG -416 928 0
FLAG -112 1312 0
FLAG -704 1280 0
SYMBOL cap 480 144 R0
SYMATTR InstName C1
SYMATTR Value 5µ
SYMBOL res 608 128 R0
SYMATTR InstName R1
SYMATTR Value 80
SYMBOL res 272 -128 R0
SYMATTR InstName R2
SYMATTR Value 0.65
SYMBOL ind 272 -256 R0
SYMATTR InstName L1
SYMATTR Value 220µ
SYMBOL voltage -576 352 R0
WINDOW 0 -54 9 Left 2
WINDOW 3 -140 206 Left 2
WINDOW 123 0 0 Left 0
WINDOW 39 0 0 Left 0
SYMATTR InstName V1
SYMATTR Value PULSE(0 5 0 0.0000001n 0.0000001n 15.625u 25u)
SYMBOL voltage -496 -208 R0
WINDOW 0 24 96 Left 2
WINDOW 3 24 16 Left 2
WINDOW 123 0 0 Left 0
WINDOW 39 0 0 Left 0
SYMATTR InstName V2
SYMATTR Value 15
SYMBOL res 80 144 R90
WINDOW 0 0 56 VBottom 2
WINDOW 3 32 56 VTop 2
SYMATTR InstName R3
SYMATTR Value 47
SYMBOL cap -1504 112 R0
SYMATTR InstName C2
SYMATTR Value 10µ
SYMBOL res -1376 96 R0
SYMATTR InstName R4
SYMATTR Value 50
SYMBOL res -1712 -160 R0
SYMATTR InstName R5
SYMATTR Value 0
SYMBOL ind -1712 -288 R0
SYMATTR InstName L2
SYMATTR Value 220µ
SYMBOL voltage -1600 80 R0
WINDOW 3 36 151 Left 2
WINDOW 123 0 0 Left 0
WINDOW 39 0 0 Left 0
SYMATTR Value PULSE(0 15 0 2n 2n 10u 25u)
SYMATTR InstName V3
SYMBOL voltage -1696 -288 R180
WINDOW 0 24 96 Left 2
WINDOW 3 24 16 Left 2
WINDOW 123 0 0 Left 0
WINDOW 39 0 0 Left 0
SYMATTR InstName V4
SYMATTR Value 15
SYMBOL sw -1760 192 R180
SYMATTR InstName S1
SYMATTR Value MYSW
SYMBOL npn -176 48 R0
SYMATTR InstName Q1
SYMATTR Value 2N2222
SYMBOL npn -432 288 R0
SYMATTR InstName Q2
SYMATTR Value BC547C
SYMBOL res -448 320 R90
WINDOW 0 0 56 VBottom 2
WINDOW 3 32 56 VTop 2
SYMATTR InstName R6
SYMATTR Value 100
SYMBOL res -384 -48 R0
SYMATTR InstName R7
SYMATTR Value 470
SYMBOL pnp -176 288 M180
WINDOW 0 58 43 Left 2
WINDOW 3 59 69 Left 2
SYMATTR InstName Q3
SYMATTR Value 2N2907
SYMBOL cap -128 1120 R0
SYMATTR InstName C3
SYMATTR Value 5µ
SYMBOL res 0 1104 R0
SYMATTR InstName R8
SYMATTR Value 80
SYMBOL res -336 848 R0
SYMATTR InstName R9
SYMATTR Value 0.65
SYMBOL ind -336 720 R0
SYMATTR InstName L3
SYMATTR Value 220µ
SYMBOL voltage -416 768 R0
WINDOW 0 24 96 Left 2
WINDOW 3 24 16 Left 2
WINDOW 123 0 0 Left 0
WINDOW 39 0 0 Left 0
SYMATTR InstName V6
SYMATTR Value 15
SYMBOL res -528 1120 R90
WINDOW 0 0 56 VBottom 2
WINDOW 3 32 56 VTop 2
SYMATTR InstName R10
SYMATTR Value 47
SYMBOL voltage -704 1136 R0
WINDOW 3 36 151 Left 2
WINDOW 123 0 0 Left 0
WINDOW 39 0 0 Left 0
SYMATTR Value PULSE(0 15 0 100n 100n 9.375u 25u)
SYMATTR InstName V5
SYMBOL AutoGenerated\\mur160 -240 1024 R90
WINDOW 0 -16 -8 VBottom 2
WINDOW 3 16 -8 VTop 2
WINDOW 39 -299 -700 VTop 2
SYMATTR InstName U3
SYMBOL AutoGenerated\\mur160 -1616 16 R90
WINDOW 0 -16 -8 VBottom 2
WINDOW 3 16 -8 VTop 2
WINDOW 39 37 -8 VTop 2
SYMATTR InstName U5
SYMBOL irf540_V2 144 160 R0
SYMATTR InstName U6
SYMBOL irf540_V2 -464 1136 R0
SYMATTR InstName U1
SYMBOL mur160 384 48 R90
WINDOW 0 -16 -8 VBottom 2
WINDOW 3 16 -8 VTop 2
WINDOW 39 -408 -708 VTop 2
SYMATTR InstName U2
TEXT 856 -400 Left 2 ;.include sihf540.lib
TEXT 856 -424 Left 2 !.tran 0 10m 0
TEXT 856 -376 Left 2 ;.include irf540n.spi
TEXT -1544 -40 Left 2 !.model MYSW SW(Ron=0.01 Roff=1Meg Vt=.5 Vh=-.4)
