Version 4
SHEET 1 1900 680
WIRE 464 -80 464 -112
WIRE 96 0 16 0
WIRE 208 0 96 0
WIRE 736 16 720 16
WIRE 832 16 800 16
WIRE 976 16 832 16
WIRE 464 32 464 0
WIRE 528 32 464 32
WIRE 976 64 976 16
WIRE 208 80 208 0
WIRE 528 80 528 32
WIRE 720 80 720 16
WIRE 832 80 832 16
WIRE 16 112 16 64
WIRE 16 112 -32 112
WIRE 96 112 96 64
WIRE 128 112 96 112
WIRE 16 144 16 112
WIRE 96 144 96 112
WIRE 96 208 16 208
WIRE 192 208 96 208
WIRE 208 208 208 144
WIRE 208 208 192 208
WIRE 720 208 720 160
WIRE 832 208 832 144
WIRE 832 208 720 208
WIRE 976 208 976 144
WIRE 976 208 832 208
WIRE 528 224 528 160
WIRE 528 240 528 224
WIRE -224 304 -224 272
WIRE 336 304 288 304
WIRE 480 304 416 304
WIRE 528 320 528 288
WIRE 288 416 288 384
WIRE 336 416 288 416
WIRE 528 416 528 320
WIRE 528 416 336 416
WIRE -224 432 -224 384
WIRE 336 432 336 416
FLAG -224 272 +Vin
FLAG 128 112 +Vin
FLAG -32 112 -Vin
FLAG -224 432 -Vin
FLAG 336 432 0
FLAG 464 -112 0
FLAG 192 208 0
FLAG 832 208 0
SYMBOL diode 32 64 R180
WINDOW 0 24 64 Left 2
WINDOW 3 24 0 Left 2
SYMATTR InstName D1
SYMBOL diode 112 64 R180
WINDOW 0 24 64 Left 2
WINDOW 3 24 0 Left 2
SYMATTR InstName D3
SYMBOL diode 112 208 R180
WINDOW 0 24 64 Left 2
WINDOW 3 24 0 Left 2
SYMATTR InstName D4
SYMBOL diode 32 208 R180
WINDOW 0 24 64 Left 2
WINDOW 3 24 0 Left 2
SYMATTR InstName D2
SYMBOL cap 192 80 R0
SYMATTR InstName C1
SYMATTR Value 1mF
SYMBOL voltage 288 288 R0
WINDOW 0 24 96 Left 2
WINDOW 3 -80 192 Left 2
WINDOW 123 0 0 Left 0
WINDOW 39 0 0 Left 0
SYMATTR InstName V2
SYMATTR Value PULSE(0 15 0 0.001n 0.0001n 3.4u 7.57u)
SYMBOL cap 816 80 R0
SYMATTR InstName C2
SYMATTR Value 1m
SYMBOL res 432 288 R90
WINDOW 0 0 56 VBottom 2
WINDOW 3 32 56 VTop 2
SYMATTR InstName R1
SYMATTR Value 47
SYMBOL res 960 48 R0
SYMATTR InstName R2
SYMATTR Value 3.33
SYMBOL ind2 512 64 R0
SYMATTR InstName L1
SYMATTR Value 43.52m
SYMATTR Type ind
SYMBOL ind2 736 176 R180
WINDOW 0 36 80 Left 2
WINDOW 3 36 40 Left 2
SYMATTR InstName L2
SYMATTR Value 27.2µ
SYMATTR Type ind
SYMBOL voltage -224 288 R0
WINDOW 123 0 0 Left 0
WINDOW 39 0 0 Left 0
SYMATTR InstName V1
SYMATTR Value SINE(0 300 50)
SYMBOL voltage 464 16 R180
WINDOW 0 24 96 Left 2
WINDOW 3 24 16 Left 2
WINDOW 123 0 0 Left 0
WINDOW 39 0 0 Left 0
SYMATTR InstName V3
SYMATTR Value 300
SYMBOL diode 736 32 R270
WINDOW 0 32 32 VTop 2
WINDOW 3 0 32 VBottom 2
SYMATTR InstName D5
SYMATTR Value MUR460
SYMBOL nmos 480 224 R0
SYMATTR InstName M1
SYMATTR Value 2N7002
TEXT -256 528 Left 2 !.tran 0 30000u 0 100n
TEXT 208 -248 Left 2 !K1 L1 L2 1
TEXT 864 344 Left 2 !.model SW SW(Ron=0.1 Roff=10Meg Vt=.5 Vh=-.4)
